
**** 03/15/25 23:19:23 ******* PSpice Lite (March 2016) ******* ID# 10813 ****

 ** Profile: "SCHEMATIC1-test_cap"  [ C:\Skola\VUT\CubeSat\BP\simulations\PSpice\tx_pa\tx_pa-pspicefiles\schematic1\test_cap.sim ] 


 ****     CIRCUIT DESCRIPTION


******************************************************************************




** Creating circuit file "test_cap.cir" 
** WARNING: THIS AUTOMATICALLY GENERATED FILE MAY BE OVERWRITTEN BY SUBSEQUENT SIMULATIONS

*Libraries: 
* Profile Libraries :
* Local Libraries :
* From [PSPICE NETLIST] section of C:\Users\honza\AppData\Roaming\SPB_Data\cdssetup\OrCAD_PSpice\17.2.0\PSpice.ini file:
.lib "nomd.lib" 

*Analysis directives: 
.AC DEC 1400 1megHz 10GHz
.OPTIONS ADVCONV
.PROBE64 V(alias(*)) I(alias(*)) W(alias(*)) D(alias(*)) NOISE(alias(*)) 
.INC "..\SCHEMATIC1.net" 



**** INCLUDING SCHEMATIC1.net ****
* source TX_PA
V_V1         N00269 0 DC 0Vdc AC 1Vac 
L_L1         N00265 N00145  20nH  
L_L2         N00145 OUT  20nH  
C_C1         0 N00145  {c}  TC=0,0 
R_R1         N00269 N00265  50 TC=0,0 
R_R2         0 OUT  50 TC=0,0 
.PARAM  c=7.3pf

**** RESUMING test_cap.cir ****
.END

**** 03/15/25 23:19:23 ******* PSpice Lite (March 2016) ******* ID# 10813 ****

 ** Profile: "SCHEMATIC1-test_cap"  [ C:\Skola\VUT\CubeSat\BP\simulations\PSpice\tx_pa\tx_pa-pspicefiles\schematic1\test_cap.sim ] 


 ****     SMALL SIGNAL BIAS SOLUTION       TEMPERATURE =   27.000 DEG C


******************************************************************************



 NODE   VOLTAGE     NODE   VOLTAGE     NODE   VOLTAGE     NODE   VOLTAGE


(  OUT)    0.0000  (N00145)    0.0000 (N00265)    0.0000 (N00269)    0.0000 




    VOLTAGE SOURCE CURRENTS
    NAME         CURRENT

    V_V1         0.000E+00

    TOTAL POWER DISSIPATION   0.00E+00  WATTS



          JOB CONCLUDED

**** 03/15/25 23:19:23 ******* PSpice Lite (March 2016) ******* ID# 10813 ****

 ** Profile: "SCHEMATIC1-test_cap"  [ C:\Skola\VUT\CubeSat\BP\simulations\PSpice\tx_pa\tx_pa-pspicefiles\schematic1\test_cap.sim ] 


 ****     JOB STATISTICS SUMMARY


******************************************************************************



  Total job time (using Solver 1)   =         .03
