
**** 02/24/25 18:45:43 ******* PSpice Lite (March 2016) ******* ID# 10813 ****

 ** Profile: "SCHEMATIC1-test_cap"  [ C:\Skola\Python\PP2\projekt\kontrola\tx_pa-PSpiceFiles\SCHEMATIC1\test_cap.sim ] 


 ****     CIRCUIT DESCRIPTION


******************************************************************************




** Creating circuit file "test_cap.cir" 
** WARNING: THIS AUTOMATICALLY GENERATED FILE MAY BE OVERWRITTEN BY SUBSEQUENT SIMULATIONS

*Libraries: 
* Profile Libraries :
* Local Libraries :
* From [PSPICE NETLIST] section of C:\SPB_Data\cdssetup\OrCAD_PSpice\17.2.0\PSpice.ini file:
.lib "nomd.lib" 

*Analysis directives: 
.AC DEC 1400 1megHz 10GHz
.OPTIONS ADVCONV
.PROBE64 V(alias(*)) I(alias(*)) W(alias(*)) D(alias(*)) NOISE(alias(*)) 
.INC "..\SCHEMATIC1.net" 



**** INCLUDING SCHEMATIC1.net ****
* source TX_PA
V_V1         IN 0 DC 0Vdc AC 1Vac 
L_L1         N00265 N00145  20nH  
L_L2         N00145 OUT  20nH  
C_C1         0 N00145  {c}  TC=0,0 
R_R1         IN N00265  50 TC=0,0 
R_R2         0 OUT  50 TC=0,0 
C_C2         0 N00699  5,976E-12F  TC=0,0 
-------------------------$
ERROR(ORPSIM-16015): Unknown parameter.
V_V2         IN_REF 0 DC 0Vdc AC 1Vac 
L_L4         N00699 OUT_REF  2,175E-08H  
-------------------------------$
ERROR(ORPSIM-16015): Unknown parameter.
R_R4         0 OUT_REF  50 TC=0,0 
L_L3         N00695 N00699  2,175E-08  
------------------------------$
ERROR(ORPSIM-16015): Unknown parameter.
R_R3         IN_REF N00695  50 TC=0,0 
.PARAM  c=7.3pf

**** RESUMING test_cap.cir ****
.END
