
**** 02/28/25 01:02:37 ******* PSpice Lite (March 2016) ******* ID# 10813 ****

 ** Profile: "SCHEMATIC1-dc"  [ C:\Users\honza\Desktop\bakalarka\sim\ntc\ntc-PSpiceFiles\SCHEMATIC1\dc.sim ] 


 ****     CIRCUIT DESCRIPTION


******************************************************************************




** Creating circuit file "dc.cir" 
** WARNING: THIS AUTOMATICALLY GENERATED FILE MAY BE OVERWRITTEN BY SUBSEQUENT SIMULATIONS

*Libraries: 
* Profile Libraries :
* Local Libraries :
* From [PSPICE NETLIST] section of C:\Users\honza\AppData\Roaming\SPB_Data\cdssetup\OrCAD_PSpice\17.2.0\PSpice.ini file:
.lib "nomd.lib" 

*Analysis directives: 
.DC LIN PARAM T 0 45 1 
.OPTIONS ADVCONV
.PROBE64 V(alias(*)) I(alias(*)) W(alias(*)) D(alias(*)) NOISE(alias(*)) 
.INC "..\SCHEMATIC1.net" 



**** INCLUDING SCHEMATIC1.net ****
* source NTC
V_V1         VCC 0 3.3Vdc
R_R1         TEMP VCC  260 TC=0,0 
R_R2         0 TEMP  1k TC=0,0 
R_NTC         0 TEMP  {R_ref * exp(B * (1/T-1/T_ref))} TC=0,0 
.PARAM  r_ref=10k t_ref=25 t=45 b=3435

**** RESUMING dc.cir ****
.END

ERROR(ORPSIM-16551): Floating point computation failed during Device/Model Load. Possible solutions: 1)Ensure that all device parameters are in valid range. 2)Try using .options LIMIT

INTERNAL ERROR -- Overflow in device R_NTC, Multiply

ABORTING SIMULATION
**** 02/28/25 01:02:37 ******* PSpice Lite (March 2016) ******* ID# 10813 ****

 ** Profile: "SCHEMATIC1-dc"  [ C:\Users\honza\Desktop\bakalarka\sim\ntc\ntc-PSpiceFiles\SCHEMATIC1\dc.sim ] 


 ****     JOB STATISTICS SUMMARY


******************************************************************************



Node counts:
  Top level (NUNODS)                =           3
  External (NCNODS)                 =           3
  Total (NUMNOD)                    =           3

Total device count (NUMEL)          =           4
  Resistors (R)                     =           3
  Voltage Sources (V)               =           1

Number of subcircuits (X)           =           0

Matrix statistics:
  Matrix size (NSTOP)               =           4
  Initial no. elements (NTTAR)      =           6
  No. elements w/ fillin (NTTBR)    =           6
  No. fillins (IFILL)               =           0
  No. overflows (NTTOV)             =           0
  No. LU operations (IOPS)          =           0
  Percent sparsity (PERSPA)         =      62.500

Analysis statistics:
  No. total time points (NUMTTP)    =           0
  No. rejected time points (NUMRTP) =           0
  No. iterations (NUMNIT)           =           0

Load Threads                        =           1

Runtime statistics:                       Seconds      Iterations
  Matrix load                       =        0.00
  Matrix solution                   =        0.00               1
  Readin                            =        0.00
  General setup                     =        0.00
  CMI setup                     =        0.00
  Setup                             =        0.00
  DC sweep                          =        0.00               0
  Bias point                        =        0.00               0
  AC and noise                      =        0.00               0
  Total transient analysis          =        0.00
  Output                            =        0.00
  Overhead                          =         .02
  Total job time (using Solver 1)   =         .34
